25
charged
 C                  0.43380000    0.91480000    0.00000000
 C                  1.82890000    0.91480000    0.00000000
 C                  2.52650000    2.12260000    0.00000000
 C                  1.82880000    3.33110000   -0.00120000
 C                  0.43400000    3.33100000   -0.00170000
 C                 -0.26360000    2.12280000   -0.00070000
 H                 -0.11610000    4.28330000   -0.00260000
 C                  4.06650000    2.12270000    0.00090000
 O                  4.85790000    2.12350000    0.94280000
 O                  4.58200000    2.12180000   -1.25440000
 C                 -0.33620000   -0.41890000    0.00060000
 O                 -0.58800000   -1.18850000   -0.92560000
 O                 -0.78590000   -0.75310000    1.23650000
 N                  2.56350000   -0.35850000    0.00180000
 H                  2.33500000   -0.87400000    0.82760000
 H                  2.30860000   -0.89150000   -0.80500000
 N                  2.56430000    4.60390000   -0.00130000
 H                  2.29880000    5.14220000   -0.80110000
 H                  2.34750000    5.11420000    0.83090000
 N                 -1.73360000    2.12300000   -0.00090000
 H                 -2.06700000    2.64420000    0.78470000
 H                 -2.06680000    2.54300000   -0.84510000
 H                  3.54690000    4.42100000   -0.03370000
 H                 -2.06710000    1.18210000    0.05740000
 H                  3.54660000   -0.17620000   -0.01610000
