charged
 OpenBabel10062018283D

 25 25  0  0  0  0  0  0  0  0999 V2000
    0.9852   -0.0374    0.0827 N   0  3  0  0  0  0  0  0  0  0  0  0
    0.6327   -0.0055    1.0448 H   0  0  0  0  0  0  0  0  0  0  0  0
    0.4757    0.5886   -0.5423 H   0  0  0  0  0  0  0  0  0  0  0  0
    0.7180   -1.0255   -0.2142 H   0  0  0  0  0  0  0  0  0  0  0  0
    2.4364    0.0368    0.0125 C   0  0  0  0  0  0  0  0  0  0  0  0
    3.0611    1.2882    0.0099 C   0  0  0  0  0  0  0  0  0  0  0  0
    4.4590    1.3501   -0.0272 C   0  0  0  0  0  0  0  0  0  0  0  0
    5.1055    2.6543   -0.0418 N   0  3  0  0  0  0  0  0  0  0  0  0
    4.9903    3.1606   -0.9236 H   0  0  0  0  0  0  0  0  0  0  0  0
    4.9133    3.2357    0.7767 H   0  0  0  0  0  0  0  0  0  0  0  0
    6.1558    2.4766    0.0014 H   0  0  0  0  0  0  0  0  0  0  0  0
    5.2321    0.1754   -0.0569 C   0  0  0  0  0  0  0  0  0  0  0  0
    6.7177    0.2578   -0.0180 C   0  0  0  0  0  0  0  0  0  0  0  0
    7.1715    1.4402   -0.0430 O   0  5  0  0  0  0  0  0  0  0  0  0
    7.3270   -0.8430    0.0601 O   0  0  0  0  0  0  0  0  0  0  0  0
    4.5926   -1.0717   -0.0846 C   0  0  0  0  0  0  0  0  0  0  0  0
    5.3761   -2.2946   -0.1627 N   0  3  0  0  0  0  0  0  0  0  0  0
    5.4641   -2.6321   -1.1232 H   0  0  0  0  0  0  0  0  0  0  0  0
    6.3543   -2.1282    0.1790 H   0  0  0  0  0  0  0  0  0  0  0  0
    4.8894   -3.0685    0.3473 H   0  0  0  0  0  0  0  0  0  0  0  0
    3.1945   -1.1451   -0.0374 C   0  0  0  0  0  0  0  0  0  0  0  0
    2.5118   -2.4656   -0.0185 C   0  0  0  0  0  0  0  0  0  0  0  0
    1.2603   -2.4004   -0.2070 O   0  5  0  0  0  0  0  0  0  0  0  0
    3.2516   -3.4598    0.2055 O   0  0  0  0  0  0  0  0  0  0  0  0
    2.4703    2.1999    0.0458 H   0  0  0  0  0  0  0  0  0  0  0  0
  1  2  1  0  0  0  0
  1  3  1  0  0  0  0
  1  4  1  0  0  0  0
  1  5  1  0  0  0  0
  5  6  2  0  0  0  0
  5 21  1  0  0  0  0
  6  7  1  0  0  0  0
  6 25  1  0  0  0  0
  7  8  1  0  0  0  0
  7 12  2  0  0  0  0
  8  9  1  0  0  0  0
  8 10  1  0  0  0  0
  8 11  1  0  0  0  0
 12 13  1  0  0  0  0
 12 16  1  0  0  0  0
 13 14  1  0  0  0  0
 13 15  2  0  0  0  0
 16 17  1  0  0  0  0
 16 21  2  0  0  0  0
 17 18  1  0  0  0  0
 17 19  1  0  0  0  0
 17 20  1  0  0  0  0
 21 22  1  0  0  0  0
 22 23  1  0  0  0  0
 22 24  2  0  0  0  0
M  CHG  5   1   1   8   1  14  -1  17   1  23  -1
M  END
